<?xml version="1.0" encoding="UTF-8"?>

<!-- generated on Tue Aug 31 15:09:32 2021 by SUMO netconvert Version 0.30.0
<?xml version="1.0" encoding="UTF-8"?>

<configuration xmlns:xsi="http://www.w3.org/2001/XMLSchema-instance" xsi:noNamespaceSchemaLocation="http://sumo.dlr.de/xsd/netconvertConfiguration.xsd">

    <input>
        <node-files value="map_net/sumo.nod.xml"/>
        <edge-files value="map_net/sumo.edg.xml"/>
    </input>

    <output>
        <output-file value="map_net/sumo.net.xml"/>
    </output>

</configuration>
-->

<net version="0.27" xmlns:xsi="http://www.w3.org/2001/XMLSchema-instance" xsi:noNamespaceSchemaLocation="http://sumo.dlr.de/xsd/net_file.xsd">

    <location netOffset="239.08,384.46" convBoundary="0.00,0.00,491.98,636.55" origBoundary="-239.08,-384.46,252.91,252.10" projParameter="!"/>

    <edge id=":2098466775_0" function="internal">
        <lane id=":2098466775_0_0" index="0" speed="13.90" length="4.55" width="4.00" shape="382.94,452.56 382.68,453.90 382.38,454.85 382.31,455.76 382.74,456.96"/>
    </edge>
    <edge id=":2098466775_1" function="internal">
        <lane id=":2098466775_1_0" index="0" speed="13.90" length="2.68" width="4.00" shape="382.94,452.56 381.80,454.02 381.03,454.33"/>
    </edge>
    <edge id=":2098466775_4" function="internal">
        <lane id=":2098466775_4_0" index="0" speed="13.90" length="3.31" width="4.00" shape="381.03,454.33 380.74,454.45 379.75,453.86 378.85,452.25"/>
    </edge>
    <edge id=":2098466775_2" function="internal">
        <lane id=":2098466775_2_0" index="0" speed="13.90" length="4.56" width="4.00" shape="378.41,456.65 379.00,455.52 379.05,454.61 378.89,453.62 378.85,452.25"/>
    </edge>
    <edge id=":2098466775_3" function="internal">
        <lane id=":2098466775_3_0" index="0" speed="13.90" length="2.49" width="4.00" shape="378.41,456.65 379.58,455.44 380.35,455.19"/>
    </edge>
    <edge id=":2098466775_5" function="internal">
        <lane id=":2098466775_5_0" index="0" speed="13.90" length="3.22" width="4.00" shape="380.35,455.19 380.69,455.08 381.75,455.59 382.74,456.96"/>
    </edge>
    <edge id=":25661372_0" function="internal">
        <lane id=":25661372_0_0" index="0" speed="13.90" length="3.76" width="4.00" shape="436.87,84.75 437.85,84.32 438.66,84.35 439.32,84.84 439.81,85.78"/>
    </edge>
    <edge id=":25661386_0" function="internal">
        <lane id=":25661386_0_0" index="0" speed="13.90" length="8.08" width="4.00" shape="106.20,280.71 105.42,280.89 104.81,281.57 104.38,282.75 104.13,284.44"/>
        <lane id=":25661386_0_1" index="1" speed="13.90" length="8.08" width="4.00" shape="106.20,280.71 103.63,280.72 101.75,281.29 100.55,282.42 100.04,284.10"/>
        <lane id=":25661386_0_2" index="2" speed="13.90" length="8.08" width="4.00" shape="106.20,280.71 101.84,280.56 98.69,281.02 96.72,282.08 95.96,283.75"/>
    </edge>
    <edge id=":25661386_3" function="internal">
        <lane id=":25661386_3_0" index="0" speed="13.90" length="16.00" width="4.00" shape="106.20,280.71 90.26,279.33"/>
    </edge>
    <edge id=":25661386_4" function="internal">
        <lane id=":25661386_4_0" index="0" speed="13.90" length="4.85" width="4.00" shape="91.87,283.41 91.90,281.68 91.64,280.43 91.09,279.64 90.26,279.33"/>
    </edge>
    <edge id=":25661386_5" function="internal">
        <lane id=":25661386_5_0" index="0" speed="13.90" length="3.62" width="4.00" shape="91.87,283.41 93.02,281.96 94.09,281.54 94.62,281.87"/>
    </edge>
    <edge id=":25661386_6" function="internal">
        <lane id=":25661386_6_0" index="0" speed="13.90" length="2.37" width="4.00" shape="94.62,281.87 95.07,282.14 95.96,283.75"/>
    </edge>
    <edge id=":25661963_0" function="internal">
        <lane id=":25661963_0_0" index="0" speed="13.90" length="4.73" width="4.00" shape="111.20,180.72 110.98,182.38 111.11,183.60 111.59,184.40 112.42,184.76"/>
    </edge>
    <edge id=":25661963_1" function="internal">
        <lane id=":25661963_1_0" index="0" speed="13.90" length="3.20" width="4.00" shape="111.20,180.72 109.88,182.02 108.77,182.31 108.62,182.18"/>
    </edge>
    <edge id=":25661963_4" function="internal">
        <lane id=":25661963_4_0" index="0" speed="13.90" length="2.79" width="4.00" shape="108.62,182.18 107.88,181.59 107.19,179.88"/>
    </edge>
    <edge id=":25661963_2" function="internal">
        <lane id=":25661963_2_0" index="0" speed="13.90" length="4.97" width="4.00" shape="104.44,183.47 105.33,183.38 106.09,182.74 106.71,181.58 107.19,179.88"/>
    </edge>
    <edge id=":25661963_3" function="internal">
        <lane id=":25661963_3_0" index="0" speed="13.90" length="8.08" width="4.00" shape="104.44,183.47 112.42,184.76"/>
    </edge>
    <edge id=":25661966_0" function="internal">
        <lane id=":25661966_0_0" index="0" speed="13.90" length="5.43" width="4.00" shape="202.47,288.83 201.57,289.04 200.75,289.78 200.04,291.06 199.42,292.89"/>
    </edge>
    <edge id=":25661966_1" function="internal">
        <lane id=":25661966_1_0" index="0" speed="13.90" length="8.26" width="4.00" shape="202.47,288.83 194.24,288.21"/>
    </edge>
    <edge id=":25661966_2" function="internal">
        <lane id=":25661966_2_0" index="0" speed="13.90" length="8.48" width="4.00" shape="198.92,284.51 198.98,287.02 199.43,288.75 199.75,290.46 199.42,292.89"/>
    </edge>
    <edge id=":25661966_3" function="internal">
        <lane id=":25661966_3_0" index="0" speed="13.90" length="3.90" width="4.00" shape="198.92,284.51 198.48,286.26 197.56,287.45 197.02,287.70"/>
    </edge>
    <edge id=":25661966_6" function="internal">
        <lane id=":25661966_6_0" index="0" speed="13.90" length="2.87" width="4.00" shape="197.02,287.70 196.14,288.10 194.24,288.21"/>
    </edge>
    <edge id=":25661966_4" function="internal">
        <lane id=":25661966_4_0" index="0" speed="13.90" length="4.44" width="4.00" shape="195.46,291.81 195.73,290.30 195.62,289.19 195.12,288.50 194.24,288.21"/>
    </edge>
    <edge id=":25661966_5" function="internal">
        <lane id=":25661966_5_0" index="0" speed="13.90" length="2.72" width="4.00" shape="195.46,291.81 196.85,290.60 197.71,290.43"/>
    </edge>
    <edge id=":25661966_7" function="internal">
        <lane id=":25661966_7_0" index="0" speed="13.90" length="3.27" width="4.00" shape="197.71,290.43 197.98,290.37 198.83,291.14 199.42,292.89"/>
    </edge>
    <edge id=":25661967_0" function="internal">
        <lane id=":25661967_0_0" index="0" speed="13.90" length="3.17" width="4.00" shape="297.61,297.80 296.74,297.86 296.10,298.18 295.68,298.77 295.49,299.61"/>
    </edge>
    <edge id=":25661967_1" function="internal">
        <lane id=":25661967_1_0" index="0" speed="13.90" length="8.33" width="4.00" shape="297.61,297.80 295.23,297.31 293.69,296.51 292.15,295.70 289.77,295.22"/>
    </edge>
    <edge id=":25661967_2" function="internal">
        <lane id=":25661967_2_0" index="0" speed="13.90" length="5.99" width="4.00" shape="297.61,297.80 296.15,296.67 295.72,295.60 296.31,294.62 297.92,293.71"/>
    </edge>
    <edge id=":25661967_3" function="internal">
        <lane id=":25661967_3_0" index="0" speed="13.90" length="4.33" width="4.00" shape="295.12,291.35 295.05,292.29 295.49,292.99 296.44,293.47 297.92,293.71"/>
    </edge>
    <edge id=":25661967_4" function="internal">
        <lane id=":25661967_4_0" index="0" speed="13.90" length="8.38" width="4.00" shape="295.12,291.35 294.70,293.73 294.97,295.42 295.40,297.14 295.49,299.61"/>
    </edge>
    <edge id=":25661967_5" function="internal">
        <lane id=":25661967_5_0" index="0" speed="13.90" length="4.41" width="4.00" shape="295.12,291.35 294.29,293.15 293.13,294.40 292.47,294.70"/>
    </edge>
    <edge id=":25661967_9" function="internal">
        <lane id=":25661967_9_0" index="0" speed="13.90" length="2.79" width="4.00" shape="292.47,294.70 291.62,295.09 289.77,295.22"/>
    </edge>
    <edge id=":25661967_6" function="internal">
        <lane id=":25661967_6_0" index="0" speed="13.90" length="4.85" width="4.00" shape="291.41,299.28 291.42,297.55 291.16,296.30 290.61,295.52 289.77,295.22"/>
    </edge>
    <edge id=":25661967_7" function="internal">
        <lane id=":25661967_7_0" index="0" speed="13.90" length="4.28" width="4.00" shape="291.41,299.28 292.00,296.67 292.93,295.36"/>
    </edge>
    <edge id=":25661967_8" function="internal">
        <lane id=":25661967_8_0" index="0" speed="13.90" length="2.77" width="4.00" shape="291.41,299.28 292.55,297.83 293.41,297.48"/>
    </edge>
    <edge id=":25661967_10" function="internal">
        <lane id=":25661967_10_0" index="0" speed="13.90" length="5.47" width="4.00" shape="292.93,295.36 293.28,294.88 295.25,293.89 297.92,293.71"/>
    </edge>
    <edge id=":25661967_11" function="internal">
        <lane id=":25661967_11_0" index="0" speed="13.90" length="3.21" width="4.00" shape="293.41,297.48 293.62,297.40 294.60,298.00 295.49,299.61"/>
    </edge>
    <edge id=":25661969_0" function="internal">
        <lane id=":25661969_0_0" index="0" speed="13.90" length="8.10" width="4.00" shape="400.01,305.83 397.80,306.01 396.17,306.84 395.10,308.34 394.61,310.50"/>
    </edge>
    <edge id=":25661969_1" function="internal">
        <lane id=":25661969_1_0" index="0" speed="13.90" length="14.04" width="4.00" shape="400.01,305.83 386.00,304.84"/>
    </edge>
    <edge id=":25661969_2" function="internal">
        <lane id=":25661969_2_0" index="0" speed="13.90" length="14.02" width="4.00" shape="400.01,305.83 397.21,305.16 394.55,303.49 392.04,300.84 389.66,297.20"/>
    </edge>
    <edge id=":25661969_3" function="internal">
        <lane id=":25661969_3_0" index="0" speed="13.90" length="5.99" width="4.00" shape="400.01,305.83 398.53,304.71 398.08,303.66 398.66,302.66 400.26,301.74"/>
    </edge>
    <edge id=":25661969_4" function="internal">
        <lane id=":25661969_4_0" index="0" speed="13.90" length="4.61" width="4.00" shape="398.21,298.20 398.25,299.70 398.60,300.78 399.27,301.46 400.26,301.74"/>
    </edge>
    <edge id=":25661969_5" function="internal">
        <lane id=":25661969_5_0" index="0" speed="13.90" length="12.87" width="4.00" shape="398.21,298.20 397.56,301.53 396.44,304.35 395.30,307.18 394.61,310.50"/>
    </edge>
    <edge id=":25661969_6" function="internal">
        <lane id=":25661969_6_0" index="0" speed="13.90" length="8.48" width="4.00" shape="398.21,298.20 397.25,301.46 394.90,303.65 393.11,304.19"/>
    </edge>
    <edge id=":25661969_7" function="internal">
        <lane id=":25661969_7_0" index="0" speed="13.90" length="10.23" width="4.00" shape="398.21,298.20 397.35,302.94 395.63,304.35 393.07,302.43"/>
    </edge>
    <edge id=":25661969_16" function="internal">
        <lane id=":25661969_16_0" index="0" speed="13.90" length="7.19" width="4.00" shape="393.11,304.19 391.15,304.78 386.00,304.84"/>
    </edge>
    <edge id=":25661969_17" function="internal">
        <lane id=":25661969_17_0" index="0" speed="13.90" length="6.25" width="4.00" shape="393.07,302.43 389.66,297.20"/>
    </edge>
    <edge id=":25661969_8" function="internal">
        <lane id=":25661969_8_0" index="0" speed="13.90" length="6.80" width="4.00" shape="386.33,300.76 388.62,300.70 389.94,300.09 390.29,298.92 389.66,297.20"/>
    </edge>
    <edge id=":25661969_9" function="internal">
        <lane id=":25661969_9_0" index="0" speed="13.90" length="13.96" width="4.00" shape="386.33,300.76 400.26,301.74"/>
    </edge>
    <edge id=":25661969_10" function="internal">
        <lane id=":25661969_10_0" index="0" speed="13.90" length="14.60" width="4.00" shape="386.33,300.76 390.24,301.63 392.92,303.55 394.37,306.51 394.61,310.50"/>
    </edge>
    <edge id=":25661969_11" function="internal">
        <lane id=":25661969_11_0" index="0" speed="13.90" length="5.99" width="4.00" shape="386.33,300.76 387.78,301.90 388.21,302.96 387.62,303.94 386.00,304.84"/>
    </edge>
    <edge id=":25661969_12" function="internal">
        <lane id=":25661969_12_0" index="0" speed="13.90" length="7.96" width="4.00" shape="390.52,310.16 390.39,307.98 389.60,306.37 388.14,305.32 386.00,304.84"/>
    </edge>
    <edge id=":25661969_13" function="internal">
        <lane id=":25661969_13_0" index="0" speed="13.90" length="13.23" width="4.00" shape="390.52,310.16 390.91,306.65 391.16,303.45 390.88,300.36 389.66,297.20"/>
    </edge>
    <edge id=":25661969_14" function="internal">
        <lane id=":25661969_14_0" index="0" speed="13.90" length="9.09" width="4.00" shape="390.52,310.16 391.41,306.27 393.33,303.57 394.92,302.75"/>
    </edge>
    <edge id=":25661969_15" function="internal">
        <lane id=":25661969_15_0" index="0" speed="13.90" length="3.29" width="4.00" shape="390.52,310.16 391.67,308.71 392.74,308.29 392.99,308.44"/>
    </edge>
    <edge id=":25661969_18" function="internal">
        <lane id=":25661969_18_0" index="0" speed="13.90" length="5.51" width="4.00" shape="394.92,302.75 396.28,302.06 400.26,301.74"/>
    </edge>
    <edge id=":25661969_19" function="internal">
        <lane id=":25661969_19_0" index="0" speed="13.90" length="2.69" width="4.00" shape="392.99,308.44 393.72,308.88 394.61,310.50"/>
    </edge>
    <edge id=":25662047_0" function="internal">
        <lane id=":25662047_0_0" index="0" speed="13.90" length="8.00" width="4.00" shape="297.53,223.79 305.17,226.14"/>
    </edge>
    <edge id=":25662047_1" function="internal">
        <lane id=":25662047_1_0" index="0" speed="13.90" length="6.84" width="4.00" shape="297.53,223.79 299.21,224.52 300.36,225.61 300.99,227.07 301.09,228.90"/>
    </edge>
    <edge id=":25662916_0" function="internal">
        <lane id=":25662916_0_0" index="0" speed="13.90" length="10.99" width="4.00" shape="87.78,478.58 86.92,489.50"/>
        <lane id=":25662916_0_1" index="1" speed="13.90" length="10.99" width="4.00" shape="83.69,478.24 82.83,489.19"/>
        <lane id=":25662916_0_2" index="2" speed="13.90" length="10.99" width="4.00" shape="79.61,477.90 78.74,488.88"/>
    </edge>
    <edge id=":25662916_3" function="internal">
        <lane id=":25662916_3_0" index="0" speed="13.90" length="5.62" width="4.00" shape="79.61,477.90 79.01,480.53 77.73,482.36 77.12,482.68"/>
    </edge>
    <edge id=":25662916_4" function="internal">
        <lane id=":25662916_4_0" index="0" speed="13.90" length="2.99" width="4.00" shape="79.61,477.90 78.46,479.35 77.40,479.77"/>
    </edge>
    <edge id=":25662916_12" function="internal">
        <lane id=":25662916_12_0" index="0" speed="13.90" length="4.20" width="4.00" shape="77.12,482.68 75.76,483.38 73.11,483.60"/>
    </edge>
    <edge id=":25662916_13" function="internal">
        <lane id=":25662916_13_0" index="0" speed="13.90" length="2.99" width="4.00" shape="77.40,479.77 76.42,479.17 75.52,477.56"/>
    </edge>
    <edge id=":25662916_5" function="internal">
        <lane id=":25662916_5_0" index="0" speed="13.90" length="3.27" width="4.00" shape="73.40,479.51 74.27,479.44 74.91,479.08 75.33,478.46 75.52,477.56"/>
    </edge>
    <edge id=":25662916_6" function="internal">
        <lane id=":25662916_6_0" index="0" speed="13.90" length="13.82" width="4.00" shape="73.40,479.51 77.79,480.35 80.82,482.24 82.50,485.19 82.83,489.19"/>
        <lane id=":25662916_6_1" index="1" speed="13.90" length="13.82" width="4.00" shape="73.40,479.51 76.00,480.24 77.75,482.04 78.67,484.92 78.74,488.88"/>
    </edge>
    <edge id=":25662916_8" function="internal">
        <lane id=":25662916_8_0" index="0" speed="13.90" length="5.99" width="4.00" shape="73.40,479.51 74.86,480.65 75.30,481.71 74.72,482.69 73.11,483.60"/>
    </edge>
    <edge id=":25662916_9" function="internal">
        <lane id=":25662916_9_0" index="0" speed="13.90" length="5.65" width="4.00" shape="74.65,488.56 74.70,486.44 74.45,484.90 73.92,483.96 73.11,483.60"/>
    </edge>
    <edge id=":25662916_10" function="internal">
        <lane id=":25662916_10_0" index="0" speed="13.90" length="11.04" width="4.00" shape="74.65,488.56 75.52,477.56"/>
    </edge>
    <edge id=":25662916_11" function="internal">
        <lane id=":25662916_11_0" index="0" speed="13.90" length="2.99" width="4.00" shape="74.65,488.56 75.79,487.11 76.85,486.68"/>
    </edge>
    <edge id=":25662916_14" function="internal">
        <lane id=":25662916_14_0" index="0" speed="13.90" length="2.99" width="4.00" shape="76.85,486.68 77.84,487.27 78.74,488.88"/>
    </edge>
    <edge id=":262480689_0" function="internal">
        <lane id=":262480689_0_0" index="0" speed="13.90" length="8.00" width="4.00" shape="202.44,197.99 204.79,198.34 206.39,198.63 207.97,199.01 210.26,199.64"/>
    </edge>
    <edge id=":262480689_1" function="internal">
        <lane id=":262480689_1_0" index="0" speed="13.90" length="6.64" width="4.00" shape="202.44,197.99 204.18,198.50 205.37,199.44 206.01,200.81 206.12,202.61"/>
    </edge>
    <edge id=":3792738018_0" function="internal">
        <lane id=":3792738018_0_0" index="0" speed="13.90" length="0.10" width="4.00" shape="273.70,419.72 273.70,419.72"/>
    </edge>
    <edge id=":3792738020_0" function="internal">
        <lane id=":3792738020_0_0" index="0" speed="13.90" length="7.98" width="4.00" shape="285.89,416.71 285.27,424.66"/>
    </edge>
    <edge id=":3792738020_1" function="internal">
        <lane id=":3792738020_1_0" index="0" speed="13.90" length="2.99" width="4.00" shape="285.89,416.71 284.74,418.15 283.68,418.58"/>
    </edge>
    <edge id=":3792738020_6" function="internal">
        <lane id=":3792738020_6_0" index="0" speed="13.90" length="2.99" width="4.00" shape="283.68,418.58 282.70,417.99 281.80,416.37"/>
    </edge>
    <edge id=":3792738020_2" function="internal">
        <lane id=":3792738020_2_0" index="0" speed="13.90" length="4.88" width="4.00" shape="279.53,420.17 280.40,419.99 281.07,419.29 281.54,418.09 281.80,416.37"/>
    </edge>
    <edge id=":3792738020_3" function="internal">
        <lane id=":3792738020_3_0" index="0" speed="13.90" length="8.21" width="4.00" shape="279.53,420.17 282.15,420.62 283.98,421.52 285.02,422.87 285.27,424.66"/>
    </edge>
    <edge id=":3792738020_4" function="internal">
        <lane id=":3792738020_4_0" index="0" speed="13.90" length="8.02" width="4.00" shape="281.18,424.37 281.80,416.37"/>
    </edge>
    <edge id=":3792738020_5" function="internal">
        <lane id=":3792738020_5_0" index="0" speed="13.90" length="2.99" width="4.00" shape="281.18,424.37 282.32,422.91 283.37,422.47"/>
    </edge>
    <edge id=":3792738020_7" function="internal">
        <lane id=":3792738020_7_0" index="0" speed="13.90" length="2.99" width="4.00" shape="283.37,422.47 284.36,423.06 285.27,424.66"/>
    </edge>
    <edge id=":3792738025_0" function="internal">
        <lane id=":3792738025_0_0" index="0" speed="13.90" length="0.30" width="4.00" shape="197.11,414.09 197.41,414.12"/>
    </edge>
    <edge id=":3792738033_0" function="internal">
        <lane id=":3792738033_0_0" index="0" speed="13.90" length="4.83" width="4.00" shape="188.36,409.56 188.34,411.27 188.60,412.52 189.15,413.29 189.99,413.60"/>
    </edge>
    <edge id=":3792738033_1" function="internal">
        <lane id=":3792738033_1_0" index="0" speed="13.90" length="8.01" width="4.00" shape="188.36,409.56 187.66,417.54"/>
    </edge>
    <edge id=":3792738033_2" function="internal">
        <lane id=":3792738033_2_0" index="0" speed="13.90" length="2.99" width="4.00" shape="188.36,409.56 187.21,411.00 186.14,411.42"/>
    </edge>
    <edge id=":3792738033_6" function="internal">
        <lane id=":3792738033_6_0" index="0" speed="13.90" length="2.99" width="4.00" shape="186.14,411.42 185.17,410.83 184.28,409.21"/>
    </edge>
    <edge id=":3792738033_3" function="internal">
        <lane id=":3792738033_3_0" index="0" speed="13.90" length="7.99" width="4.00" shape="183.57,417.17 184.28,409.21"/>
    </edge>
    <edge id=":3792738033_4" function="internal">
        <lane id=":3792738033_4_0" index="0" speed="13.90" length="4.13" width="4.00" shape="183.57,417.17 184.11,415.45 185.36,414.28 185.95,414.09"/>
    </edge>
    <edge id=":3792738033_5" function="internal">
        <lane id=":3792738033_5_0" index="0" speed="13.90" length="2.99" width="4.00" shape="183.57,417.17 184.73,415.73 185.80,415.31"/>
    </edge>
    <edge id=":3792738033_7" function="internal">
        <lane id=":3792738033_7_0" index="0" speed="13.90" length="4.11" width="4.00" shape="185.95,414.09 187.32,413.66 189.99,413.60"/>
    </edge>
    <edge id=":3792738033_8" function="internal">
        <lane id=":3792738033_8_0" index="0" speed="13.90" length="2.99" width="4.00" shape="185.80,415.31 186.78,415.91 187.66,417.54"/>
    </edge>
    <edge id=":3922684820_0" function="internal">
        <lane id=":3922684820_0_0" index="0" speed="13.90" length="4.91" width="4.00" shape="385.50,420.84 385.50,422.59 385.77,423.86 386.33,424.65 387.16,424.97"/>
    </edge>
    <edge id=":3922684820_1" function="internal">
        <lane id=":3922684820_1_0" index="0" speed="13.90" length="8.02" width="4.00" shape="385.50,420.84 384.88,428.84"/>
    </edge>
    <edge id=":3922684820_2" function="internal">
        <lane id=":3922684820_2_0" index="0" speed="13.90" length="2.99" width="4.00" shape="385.50,420.84 384.37,422.30 383.31,422.74"/>
    </edge>
    <edge id=":3922684820_6" function="internal">
        <lane id=":3922684820_6_0" index="0" speed="13.90" length="2.99" width="4.00" shape="383.31,422.74 382.33,422.15 381.41,420.54"/>
    </edge>
    <edge id=":3922684820_3" function="internal">
        <lane id=":3922684820_3_0" index="0" speed="13.90" length="7.98" width="4.00" shape="380.80,428.50 381.41,420.54"/>
    </edge>
    <edge id=":3922684820_4" function="internal">
        <lane id=":3922684820_4_0" index="0" speed="13.90" length="4.13" width="4.00" shape="380.80,428.50 381.32,426.76 382.55,425.60 383.14,425.42"/>
    </edge>
    <edge id=":3922684820_5" function="internal">
        <lane id=":3922684820_5_0" index="0" speed="13.90" length="2.99" width="4.00" shape="380.80,428.50 381.95,427.05 383.01,426.63"/>
    </edge>
    <edge id=":3922684820_7" function="internal">
        <lane id=":3922684820_7_0" index="0" speed="13.90" length="4.08" width="4.00" shape="383.14,425.42 384.50,425.00 387.16,424.97"/>
    </edge>
    <edge id=":3922684820_8" function="internal">
        <lane id=":3922684820_8_0" index="0" speed="13.90" length="2.99" width="4.00" shape="383.01,426.63 383.99,427.22 384.88,428.84"/>
    </edge>
    <edge id=":4683353418_0" function="internal">
        <lane id=":4683353418_0_0" index="0" speed="13.90" length="0.30" width="4.00" shape="259.73,418.70 260.03,418.72"/>
    </edge>
    <edge id=":4683353419_0" function="internal">
        <lane id=":4683353419_0_0" index="0" speed="13.90" length="0.10" width="4.00" shape="210.99,415.12 210.99,415.12"/>
    </edge>
    <edge id=":545110995_0" function="internal">
        <lane id=":545110995_0_0" index="0" speed="13.90" length="6.13" width="4.00" shape="371.92,251.79 373.56,252.27 374.90,252.07 375.94,251.20 376.68,249.66"/>
    </edge>
    <edge id=":545110995_1" function="internal">
        <lane id=":545110995_1_0" index="0" speed="13.90" length="7.99" width="4.00" shape="371.92,251.79 379.30,254.87"/>
    </edge>
    <edge id=":545119977_0" function="internal">
        <lane id=":545119977_0_0" index="0" speed="13.90" length="7.95" width="4.00" shape="401.13,255.93 400.53,258.21 400.23,259.80 400.15,261.42 400.18,263.77"/>
    </edge>
    <edge id=":5876555903_0" function="internal">
        <lane id=":5876555903_0_0" index="0" speed="13.90" length="0.27" width="4.00" shape="80.52,210.82 80.25,210.81"/>
    </edge>
    <edge id=":5876555904_0" function="internal">
        <lane id=":5876555904_0_0" index="0" speed="13.90" length="0.30" width="4.00" shape="93.19,211.59 92.89,211.58"/>
    </edge>
    <edge id=":606986901_0" function="internal">
        <lane id=":606986901_0_0" index="0" speed="13.90" length="4.47" width="4.00" shape="377.61,532.09 376.88,533.10 376.69,533.97 376.76,534.96 376.76,536.30"/>
    </edge>
    <edge id=":606986901_1" function="internal">
        <lane id=":606986901_1_0" index="0" speed="13.90" length="2.77" width="4.00" shape="377.61,532.09 376.26,533.15 375.23,533.36"/>
    </edge>
    <edge id=":606986901_4" function="internal">
        <lane id=":606986901_4_0" index="0" speed="13.90" length="3.23" width="4.00" shape="375.23,533.36 375.00,533.41 373.85,532.85 372.80,531.49"/>
    </edge>
    <edge id=":606986901_2" function="internal">
        <lane id=":606986901_2_0" index="0" speed="13.90" length="4.54" width="4.00" shape="372.68,535.88 372.93,534.54 373.21,533.58 373.26,532.67 372.80,531.49"/>
    </edge>
    <edge id=":606986901_3" function="internal">
        <lane id=":606986901_3_0" index="0" speed="13.90" length="2.75" width="4.00" shape="372.68,535.88 373.86,534.45 374.70,534.14"/>
    </edge>
    <edge id=":606986901_5" function="internal">
        <lane id=":606986901_5_0" index="0" speed="13.90" length="3.24" width="4.00" shape="374.70,534.14 374.93,534.05 375.90,534.66 376.76,536.30"/>
    </edge>
    <edge id=":7515757028_0" function="internal">
        <lane id=":7515757028_0_0" index="0" speed="13.90" length="4.89" width="4.00" shape="375.56,551.32 375.54,553.06 375.81,554.33 376.36,555.12 377.19,555.44"/>
    </edge>
    <edge id=":7515757028_1" function="internal">
        <lane id=":7515757028_1_0" index="0" speed="13.90" length="8.00" width="4.00" shape="375.56,551.32 374.92,559.30"/>
    </edge>
    <edge id=":7515757028_2" function="internal">
        <lane id=":7515757028_2_0" index="0" speed="13.90" length="2.99" width="4.00" shape="375.56,551.32 374.41,552.77 373.35,553.20"/>
    </edge>
    <edge id=":7515757028_6" function="internal">
        <lane id=":7515757028_6_0" index="0" speed="13.90" length="2.99" width="4.00" shape="373.35,553.20 372.37,552.61 371.47,551.00"/>
    </edge>
    <edge id=":7515757028_3" function="internal">
        <lane id=":7515757028_3_0" index="0" speed="13.90" length="8.00" width="4.00" shape="370.83,558.97 371.47,551.00"/>
    </edge>
    <edge id=":7515757028_4" function="internal">
        <lane id=":7515757028_4_0" index="0" speed="13.90" length="4.14" width="4.00" shape="370.83,558.97 371.35,557.23 372.58,556.06 373.18,555.88"/>
    </edge>
    <edge id=":7515757028_5" function="internal">
        <lane id=":7515757028_5_0" index="0" speed="13.90" length="2.99" width="4.00" shape="370.83,558.97 371.97,557.52 373.04,557.09"/>
    </edge>
    <edge id=":7515757028_7" function="internal">
        <lane id=":7515757028_7_0" index="0" speed="13.90" length="4.07" width="4.00" shape="373.18,555.88 374.53,555.47 377.19,555.44"/>
    </edge>
    <edge id=":7515757028_8" function="internal">
        <lane id=":7515757028_8_0" index="0" speed="13.90" length="2.99" width="4.00" shape="373.04,557.09 374.02,557.68 374.92,559.30"/>
    </edge>
    <edge id=":7589514175_0" function="internal">
        <lane id=":7589514175_0_0" index="0" speed="13.90" length="0.25" width="4.00" shape="110.33,443.08 110.08,443.06"/>
    </edge>
    <edge id=":7589514177_0" function="internal">
        <lane id=":7589514177_0_0" index="0" speed="13.90" length="4.66" width="4.00" shape="91.11,437.77 91.08,439.47 91.31,440.70 91.79,441.46 92.54,441.76"/>
    </edge>
    <edge id=":7589514177_1" function="internal">
        <lane id=":7589514177_1_0" index="0" speed="13.90" length="7.99" width="4.00" shape="91.11,437.77 90.46,445.71"/>
        <lane id=":7589514177_1_1" index="1" speed="13.90" length="7.99" width="4.00" shape="87.03,437.42 86.37,445.39"/>
        <lane id=":7589514177_1_2" index="2" speed="13.90" length="7.99" width="4.00" shape="82.94,437.08 82.29,445.06"/>
    </edge>
    <edge id=":7589514177_4" function="internal">
        <lane id=":7589514177_4_0" index="0" speed="13.90" length="2.99" width="4.00" shape="82.94,437.08 81.79,438.52 80.73,438.94"/>
    </edge>
    <edge id=":7589514177_8" function="internal">
        <lane id=":7589514177_8_0" index="0" speed="13.90" length="2.99" width="4.00" shape="80.73,438.94 79.75,438.35 78.86,436.73"/>
    </edge>
    <edge id=":7589514177_5" function="internal">
        <lane id=":7589514177_5_0" index="0" speed="13.90" length="8.03" width="4.00" shape="78.20,444.73 78.86,436.73"/>
    </edge>
    <edge id=":7589514177_6" function="internal">
        <lane id=":7589514177_6_0" index="0" speed="13.90" length="3.33" width="4.00" shape="78.20,444.73 79.21,443.05 80.48,442.55"/>
    </edge>
    <edge id=":7589514177_7" function="internal">
        <lane id=":7589514177_7_0" index="0" speed="13.90" length="2.99" width="4.00" shape="78.20,444.73 79.34,443.28 80.41,442.85"/>
    </edge>
    <edge id=":7589514177_9" function="internal">
        <lane id=":7589514177_9_0" index="0" speed="13.90" length="12.19" width="4.00" shape="80.48,442.55 81.94,441.99 86.39,441.56 92.54,441.76"/>
    </edge>
    <edge id=":7589514177_10" function="internal">
        <lane id=":7589514177_10_0" index="0" speed="13.90" length="2.99" width="4.00" shape="80.41,442.85 81.39,443.44 82.29,445.06"/>
    </edge>
    <edge id=":7589514179_0" function="internal">
        <lane id=":7589514179_0_0" index="0" speed="13.90" length="7.98" width="4.00" shape="185.04,446.29 184.35,454.24"/>
    </edge>
    <edge id=":7589514179_1" function="internal">
        <lane id=":7589514179_1_0" index="0" speed="13.90" length="4.13" width="4.00" shape="185.04,446.29 184.50,448.02 183.26,449.18 182.67,449.36"/>
    </edge>
    <edge id=":7589514179_2" function="internal">
        <lane id=":7589514179_2_0" index="0" speed="13.90" length="2.99" width="4.00" shape="185.04,446.29 183.88,447.73 182.81,448.15"/>
    </edge>
    <edge id=":7589514179_6" function="internal">
        <lane id=":7589514179_6_0" index="0" speed="13.90" length="4.08" width="4.00" shape="182.67,449.36 181.31,449.77 178.65,449.79"/>
    </edge>