<?xml version='1.0' encoding='UTF-8'?>
<nodes>
  <node id="2098466775" x="141.731027" y="68.996975" shape="137.826273,67.673005 140.115982,67.817302 143.494196,68.052923 145.799443,68.327653 145.717612,69.324299 145.382300,71.579261 141.855962,73.467366 140.986725,73.406739 137.756635,71.047392 137.744442,68.669651 137.826273,67.673005 137.826273,67.673005"/>
  <node id="25661372" x="199.881764" y="-300.942478"/>
  <node id="25661386" x="-140.837366" y="-104.523661" shape="-144.659975,-106.844795 -140.673434,-106.516931 -140.654694,-106.515301 -136.671413,-106.149957 -132.865602,-103.852115 -133.201375,-99.866233 -149.144903,-101.209325 -148.809130,-105.195207 -144.659975,-106.844795 -144.659975,-106.844795"/>
  <node id="25661963" x="-130.70431" y="-200.241114" shape="-133.792724,-204.980492 -125.964932,-203.329528 -127.037616,-197.680771 -130.995108,-198.262368 -131.049854,-198.271190 -134.989701,-198.962278 -134.298613,-202.902126 -133.792724,-204.980492 -133.792724,-204.980492"/>
  <node id="25661966" x="-40.585947" y="-95.96372" shape="-42.197476,-100.135407 -38.215515,-99.755956 -36.450445,-97.665960 -36.742854,-93.676662 -37.777178,-91.053443 -45.496224,-93.154951 -44.415727,-98.273002 -42.197476,-100.135407 -42.197476,-100.135407"/>
  <node id="25661967" x="54.700272" y="-88.99638" shape="53.991160,-93.411939 58.987369,-92.687017 58.390909,-84.709283 58.359866,-84.682753 50.386645,-85.336786 50.856815,-91.282827 53.991160,-93.411939 53.991160,-93.411939"/>
  <node id="25661969" x="154.068784" y="-81.101523" shape="152.415089,-88.191325 157.179127,-87.683754 161.300227,-84.666103 160.811155,-76.681066 157.475667,-73.790471 149.503780,-74.460559 146.773611,-77.669256 147.408051,-85.644060 152.415089,-88.191325 152.415089,-88.191325"/>
  <node id="25662047" x="62.292051" y="-159.548049" shape="58.970516,-162.542611 62.825569,-161.475576 62.934140,-161.442177 66.722396,-160.158000 65.438219,-156.369743 63.953785,-155.396105 59.967536,-155.727496 57.903480,-158.687558 58.970516,-162.542611 58.970516,-162.542611"/>
  <node id="25662916" x="-157.855127" y="97.590573" shape="-165.495218,92.939873 -149.550513,94.268920 -150.413569,105.181569 -166.366763,103.958622 -165.831724,96.979099 -165.827480,96.926050 -165.495218,92.939873 -165.495218,92.939873"/>
  <node id="262480689" x="-32.680946" y="-185.835508" shape="-36.347640,-188.395851 -32.390148,-187.814254 -32.147428,-187.763035 -28.292375,-186.695999 -29.359411,-182.840946 -31.008487,-181.687872 -34.995579,-182.008960 -36.929237,-184.438359 -36.347640,-188.395851 -36.347640,-188.395851"/>
  <node id="3792738018" x="34.621049" y="35.31762"/>
  <node id="3792738020" x="44.4413" y="36.0692" shape="40.781706,31.755573 48.754927,32.409606 48.140489,40.348920 40.161580,39.768389 40.300782,37.759202 40.604987,33.770787 40.781706,31.755573 40.781706,31.755573"/>
  <node id="3792738025" x="-41.817916" y="29.699001"/>
  <node id="3792738033" x="-53.096682" y="28.912134" shape="-56.742307,24.586696 -48.771244,25.266509 -49.246168,31.186677 -49.475688,33.258213 -57.442761,32.533128 -56.742307,24.586696 -56.742307,24.586696"/>
  <node id="3922684820" x="144.093293" y="40.226194" shape="140.394617,35.946031 148.373456,36.527518 148.248291,38.572112 147.752554,44.540103 139.779384,43.885455 140.394617,35.946031 140.394617,35.946031"/>
  <node id="4683353418" x="20.80008" y="34.302338"/>
  <node id="4683353419" x="-28.086072" y="30.709448"/>
  <node id="545110995" x="136.463005" y="-130.961279" shape="135.738544,-135.374346 139.558782,-134.188687 140.912520,-131.410520 139.492107,-127.671212 135.752798,-129.091625 135.632343,-129.141938 131.993662,-130.803261 133.654985,-134.441943 135.738544,-135.374346 135.738544,-135.374346"/>
  <node id="545119977" x="160.961942" y="-124.679144" shape="160.075112,-129.062468 163.936504,-128.018602 163.056404,-120.727786 159.057533,-120.632760 156.979341,-122.644718 156.944841,-126.644569 160.075112,-129.062468 160.075112,-129.062468"/>
  <node id="5876555903" x="-158.686156" y="-173.688813"/>
  <node id="5876555904" x="-146.027903" y="-172.919722"/>
  <node id="606986901" x="135.737566" y="150.491595" shape="135.512817,146.025110 137.050720,146.216595 139.945459,148.977118 139.644868,151.808027 137.184935,151.871857 133.995922,151.474791 131.670449,151.168767 131.750357,150.171965 132.029529,147.991503 135.512817,146.025110 135.512817,146.025110"/>
  <node id="7515757028" x="134.118273" y="170.691386" shape="130.450694,166.384547 138.425112,167.023807 138.274113,169.039419 137.784975,174.998972 129.810687,174.358088 130.450694,166.384547 130.450694,166.384547"/>
  <node id="7589514174" x="-80.861083" y="63.265748"/>
  <node id="7589514175" x="-128.87056" y="58.566932"/>
  <node id="7589514176" x="-140.705731" y="57.778867"/>
  <node id="7589514177" x="-154.526548" y="56.770373" shape="-162.159343,52.107709 -146.216740,53.461735 -146.871838,61.396971 -162.820653,60.118183 -162.500956,56.130979 -162.497850,56.093360 -162.159343,52.107709 -162.159343,52.107709"/>
  <node id="7589514178" x="-68.16791" y="64.604956"/>
  <node id="7589514179" x="-56.438662" y="65.633033" shape="-60.059656,61.286954 -52.092583,62.012039 -52.779542,69.947061 -60.752690,69.292153 -60.598017,67.276130 -60.248753,63.291408 -60.059656,61.286954 -60.059656,61.286954"/>
  <node id="7840422616" x="37.447514" y="130.558351"/>
  <node id="7840422617" x="39.647087" y="101.961584"/>
  <node id="7840422618" x="-59.297447" y="116.042992"/>
  <node id="7840422619" x="-57.164914" y="74.474761"/>
  <node id="960119785" x="153.051692" y="-124.610915" shape="150.058777,-127.933935 157.034293,-126.645341 157.068793,-122.645490 154.746835,-120.472499 150.758045,-120.771751 148.597527,-124.210395 150.058777,-127.933935 150.058777,-127.933935"/>
  <node id="Custom34" x="-239.075156" y="-112.605433"/>
  <node id="Custom35" x="-79.780906" y="-384.455656"/>
  <node id="Custom36" x="-167.98176899999999" y="228.797701"/>
  <node id="Custom37" x="-230.08388" y="-216.570811"/>
  <node id="Custom38" x="-176.764498" y="96.437554"/>
  <node id="Custom39" x="172.591714" y="42.740169"/>
  <node id="Custom40" x="214.649617" y="46.519811000000004"/>
  <node id="Custom41" x="160.036096" y="41.581152"/>
  <node id="Custom42" x="-133.671163" y="-172.19819"/>
  <node id="Custom43" x="-170.652523" y="-141.534502"/>
  <node id="Custom44" x="207.222822" y="173.501478"/>
  <node id="Custom45" x="-66.987869" y="236.75716699999998"/>
  <node id="Custom46" x="28.3879" y="244.27878499999997"/>
  <node id="Custom47" x="127.575872" y="252.096052"/>
  <node id="Custom48" x="252.906494" y="-75.047849"/>
</nodes>
