<?xml version='1.0' encoding='UTF-8'?>
<edges>
  <edge id="4588220" from="25661386" to="Custom34" numLanes="1" width="4.0" shape="-148.646531,-107.172660 -151.966201,-107.445679 -152.254066,-107.469451 -156.235650,-107.798252 -162.760441,-108.333806 -173.917376,-109.249567 -198.308960,-111.256726 -201.809367,-111.546347 -207.093376,-111.983542 -225.644830,-113.510420 -225.648272,-113.510700 -227.489218,-113.659019 -228.020977,-113.701861 -238.911006,-114.598685 "/>
  <edge id="23755739" from="Custom35" to="25661963" numLanes="1" width="4.0" shape="-79.780906,-384.455656 -83.709686,-371.577392 -84.849486,-367.817978 -89.918578,-351.200692 -93.671137,-338.896697 -113.843681,-280.183182 -129.878828,-204.155009 "/>
  <edge id="-23755739" to="Custom35" from="25661963" numLanes="1" width="4.0" shape="-129.878828,-204.155009 -113.843681,-280.183182 -93.671137,-338.896697 -89.918578,-351.200692 -84.849486,-367.817978 -83.709686,-371.577392 -79.780906,-384.455656 "/>
  <edge id="35557143" from="25662916" to="Custom36" numLanes="3" width="4.0" shape="-162.378464,104.264358 -162.748409,109.090242 -162.749593,109.106094 -162.970943,112.152377 -162.971322,112.157637 -164.361499,131.645105 -164.363797,131.679397 -165.329972,147.087365 -170.623522,211.932161 -170.998766,216.572210 -171.968553,228.472816 "/>
  <edge id="-35557143" to="25662916" from="Custom36" numLanes="1" width="4.0" shape="-171.968553,228.472816 -170.998766,216.572210 -170.623522,211.932161 -165.329972,147.087365 -164.363797,131.679397 -164.361499,131.645105 -162.971322,112.157637 -162.970943,112.152377 -162.749593,109.106094 -162.748409,109.090242 -162.378464,104.264358 "/>
  <edge id="43348945" from="25661372" to="545119977" numLanes="1" width="4.0" shape="197.995226,-300.278418 201.802079,-289.463467 200.460917,-284.685107 184.741512,-230.966806 184.687483,-230.729404 183.257574,-222.027572 183.249660,-221.975065 181.248397,-207.385094 160.075112,-129.062468 "/>
  <edge id="47707170" from="606986901" to="2098466775" numLanes="1" width="4.0" shape="135.512817,146.025110 134.152927,143.616186 134.494828,137.584865 134.885261,131.157684 134.958257,129.940961 135.554671,120.268397 135.554913,120.264404 136.113694,110.897191 136.623447,102.446097 137.024331,98.138029 137.027546,98.099424 138.009359,84.750465 138.010086,84.740230 138.209533,81.824059 138.723696,76.504963 140.986725,73.406738 "/>
  <edge id="47707171" from="2098466775" to="606986901" numLanes="1" width="4.0" shape="141.855962,73.467366 143.351140,76.259851 143.040247,82.306647 141.600701,98.391355 141.596763,98.442825 140.971017,108.291765 140.813151,110.682586 140.812778,110.688360 140.187909,120.587277 140.187684,120.590889 139.592075,130.305842 139.123763,138.014296 138.259981,144.948541 137.050720,146.216594 "/>
  <edge id="47935842" from="Custom37" to="25661963" numLanes="1" width="4.0" shape="-230.375935,-214.592250 -190.746194,-208.742515 -134.989701,-198.962277 "/>
  <edge id="82488124" from="25661969" to="960119785" numLanes="1" width="4.0" shape="152.379269,-88.255749 152.295293,-88.406781 153.476759,-103.543530 153.477219,-103.549536 154.746835,-120.472498 "/>
  <edge id="82488125" from="545110995" to="25661372" numLanes="1" width="4.0" shape="139.558782,-134.188688 144.808541,-151.103620 164.608663,-214.847321 169.466365,-226.721703 174.193579,-236.346466 174.267618,-236.516768 174.325543,-236.693202 188.628477,-288.217637 188.636812,-288.248625 189.685149,-292.274670 200.934846,-299.242178 "/>
  <edge id="168935756" from="25661966" to="25661386" numLanes="1" width="4.0" shape="-44.674561,-98.293482 -90.724019,-101.937147 -125.857404,-105.155649 -130.060527,-105.543610 -132.687914,-105.784592 "/>
  <edge id="191556835" from="545119977" to="25661969" numLanes="1" width="4.0" shape="159.057533,-120.632758 159.148368,-116.810305 158.228512,-103.072305 157.696604,-95.292922 157.130017,-87.006342 "/>
  <edge id="196850605" from="Custom38" to="25662916" numLanes="1" width="4.0" shape="-176.764498,96.437554 -172.496851,96.695333 -168.095436,96.963706 -165.841122,97.101705 "/>
  <edge id="-196850605" to="Custom38" from="25662916" numLanes="1" width="4.0" shape="-165.841122,97.101705 -168.095436,96.963706 -172.496851,96.695333 -176.764498,96.437554 "/>
  <edge id="236868322" from="Custom39" to="Custom40" numLanes="1" width="4.0" shape="172.402836,44.731230 205.020312,47.825428 205.064357,47.829116 214.504784,48.514560 "/>
  <edge id="375935041" from="3792738018" to="3792738020" numLanes="1" width="4.0" shape="34.467785,37.311739 38.848474,37.648431 40.300780,37.759203 "/>
  <edge id="375935042" from="3792738033" to="3792738025" numLanes="1" width="4.0" shape="-49.225946,31.188093 -46.694228,31.365385 -41.956387,31.694202 "/>
  <edge id="375935044" from="4683353419" to="4683353418" numLanes="1" width="4.0" shape="-28.232667,32.704068 20.653485,36.296959 "/>
  <edge id="389101384" from="3922684820" to="Custom41" numLanes="1" width="4.0" shape="147.913363,42.558067 159.866729,43.573968 "/>
  <edge id="474362277" from="4683353418" to="3792738018" numLanes="1" width="4.0" shape="20.654593,36.297039 23.005946,36.468539 33.857707,37.264557 34.466839,37.311665 "/>
  <edge id="474362278" from="3792738025" to="4683353419" numLanes="1" width="4.0" shape="-41.958551,31.694050 -40.791658,31.776307 -28.233415,32.704012 "/>
  <edge id="622088433" from="5876555904" to="5876555903" numLanes="1" width="4.0" shape="-145.906611,-174.916041 -158.564864,-175.685132 "/>
  <edge id="622088435" from="Custom42" to="5876555904" numLanes="1" width="4.0" shape="-133.554578,-174.194789 -145.911319,-174.916320 "/>
  <edge id="622088436" from="5876555903" to="Custom43" numLanes="1" width="4.0" shape="-158.515929,-175.681556 -163.777067,-176.130980 -163.989472,-176.137792 -164.201401,-176.122029 -164.410461,-176.083867 -166.736578,-175.530123 -166.929669,-175.473759 -167.116122,-175.398284 -167.294051,-175.304462 -167.461656,-175.193242 -167.617241,-175.065749 -167.759233,-174.923273 -167.886196,-174.767255 -167.996844,-174.599273 -168.090060,-174.421026 -169.090185,-172.249113 -169.168691,-172.051631 -169.225801,-171.846934 -169.260867,-171.637332 -172.639854,-141.759254 "/>
  <edge id="681299267" from="262480689" to="25661966" numLanes="1" width="4.0" shape="-34.995579,-182.008960 -38.174311,-142.537151 -41.558474,-106.841090 -42.197477,-100.135407 "/>
  <edge id="681299268" from="25661963" to="262480689" numLanes="1" width="4.0" shape="-126.954962,-197.668624 -36.929236,-184.438359 "/>
  <edge id="753316505" from="25661967" to="25661966" numLanes="1" width="4.0" shape="50.845047,-91.283688 -30.966086,-97.267243 -33.758765,-97.469168 -34.265879,-97.505835 -36.450445,-97.665960 "/>
  <edge id="753316506" from="25662047" to="25661967" numLanes="1" width="4.0" shape="59.967536,-155.727495 55.073390,-96.856578 54.088100,-93.720493 "/>
  <edge id="803471183" from="7515757028" to="Custom44" numLanes="1" width="4.0" shape="137.940129,173.025456 139.867961,173.190288 181.944775,176.753483 182.123976,176.760589 182.303094,176.751613 182.480687,176.726627 182.655328,176.685834 182.825613,176.629559 187.622511,174.801920 187.632715,174.798032 207.150920,175.500185 "/>
  <edge id="812557613" from="7589514174" to="7589514175" numLanes="1" width="4.0" shape="-80.666268,61.275259 -128.675746,56.576443 "/>
  <edge id="812557614" from="7589514175" to="7589514176" numLanes="1" width="4.0" shape="-128.738165,56.571319 -139.378442,55.865413 -140.568528,55.783579 "/>
  <edge id="812557615" from="7589514177" to="7589514176" numLanes="1" width="4.0" shape="-146.683561,59.347987 -140.851283,59.773564 "/>
  <edge id="812557616" from="7589514174" to="7589514178" numLanes="1" width="4.0" shape="-81.070931,65.254709 -68.377758,66.593917 "/>
  <edge id="812557617" from="7589514179" to="7589514178" numLanes="1" width="4.0" shape="-60.248752,63.291408 -67.993278,62.612594 "/>
  <edge id="840229275" from="7840422618" to="Custom45" numLanes="1" width="4.0" shape="-59.297447,116.042992 -67.417917,225.449767 -66.987869,236.757167 "/>
  <edge id="-840229275" to="7840422618" from="Custom45" numLanes="1" width="4.0" shape="-66.987869,236.757167 -67.417917,225.449767 -59.297447,116.042992 "/>
  <edge id="840229276" from="7840422619" to="7840422618" numLanes="1" width="4.0" shape="-57.164914,74.474761 -58.997834,96.056709 -58.520669,105.971368 -59.297447,116.042992 "/>
  <edge id="-840229276" to="7840422619" from="7840422618" numLanes="1" width="4.0" shape="-59.297447,116.042992 -58.520669,105.971368 -58.997834,96.056709 -57.164914,74.474761 "/>
  <edge id="840229277" from="7840422616" to="Custom46" numLanes="1" width="4.0" shape="37.447514,130.558351 28.387900,244.278785 "/>
  <edge id="-840229277" to="7840422616" from="Custom46" numLanes="1" width="4.0" shape="28.387900,244.278785 37.447514,130.558351 "/>
  <edge id="840229278" from="7840422617" to="7840422616" numLanes="1" width="4.0" shape="39.647087,101.961584 38.847928,113.025101 37.447514,130.558352 "/>
  <edge id="-840229278" to="7840422617" from="7840422616" numLanes="1" width="4.0" shape="37.447514,130.558352 38.847928,113.025101 39.647087,101.961584 "/>
  <edge id="4588219_1" from="25661966" to="3792738033" numLanes="1" width="4.0" shape="-41.636701,-92.104197 -42.992258,-87.125104 -45.953974,-54.838850 -52.756775,24.926602 "/>
  <edge id="-4588219_1" to="25661966" from="3792738033" numLanes="1" width="4.0" shape="-52.756775,24.926602 -45.953974,-54.838850 -42.992258,-87.125104 -41.636701,-92.104197 "/>
  <edge id="4588222_1" from="25661967" to="3792738020" numLanes="1" width="4.0" shape="54.373255,-85.009770 44.768317,32.082589 "/>
  <edge id="-4588222_1" to="25661967" from="3792738020" numLanes="1" width="4.0" shape="44.768317,32.082589 54.373255,-85.009770 "/>
  <edge id="4588222_2" from="3792738020" to="7840422617" numLanes="1" width="4.0" shape="44.151034,40.058654 39.647086,101.961583 "/>
  <edge id="-4588222_2" to="3792738020" from="7840422617" numLanes="1" width="4.0" shape="39.647086,101.961583 44.151034,40.058654 "/>
  <edge id="24997595_1" from="Custom47" to="7515757028" numLanes="1" width="4.0" shape="127.575872,252.096052 133.797831,174.678530 "/>
  <edge id="-24997595_1" to="Custom47" from="7515757028" numLanes="1" width="4.0" shape="133.797831,174.678530 127.575872,252.096052 "/>
  <edge id="24997595_2" from="7515757028" to="606986901" numLanes="1" width="4.0" shape="134.437903,166.704176 135.642316,151.679784 "/>
  <edge id="-24997595_2" to="7515757028" from="606986901" numLanes="1" width="4.0" shape="135.642316,151.679784 134.437903,166.704176 "/>
  <edge id="47755711_1" from="2098466775" to="3922684820" numLanes="1" width="4.0" shape="141.818138,67.936023 143.765969,44.212779 "/>
  <edge id="-47755711_1" to="2098466775" from="3922684820" numLanes="1" width="4.0" shape="143.765969,44.212779 141.818138,67.936023 "/>
  <edge id="47755711_2" from="3922684820" to="25661969" numLanes="1" width="4.0" shape="144.384037,36.236774 145.498788,20.940807 153.489724,-74.125516 "/>
  <edge id="-47755711_2" to="3922684820" from="25661969" numLanes="1" width="4.0" shape="153.489724,-74.125516 145.498788,20.940807 144.384037,36.236774 "/>
  <edge id="168935757_1" from="25661967" to="25661969" numLanes="1" width="4.0" shape="58.689139,-88.698150 66.794006,-88.092185 142.742935,-82.002558 147.090832,-81.656658 "/>
  <edge id="-168935757_1" to="25661967" from="25661969" numLanes="1" width="4.0" shape="147.090832,-81.656658 142.742935,-82.002558 66.794006,-88.092185 58.689139,-88.698150 "/>
  <edge id="168935757_2" from="25661969" to="Custom48" numLanes="1" width="4.0" shape="161.055691,-80.673585 252.906494,-75.047849 "/>
  <edge id="-168935757_2" to="25661969" from="Custom48" numLanes="1" width="4.0" shape="252.906494,-75.047849 161.055691,-80.673585 "/>
  <edge id="303084352_1" from="545110995" to="960119785" numLanes="1" width="4.0" shape="139.492106,-127.671212 148.435774,-124.273872 148.597529,-124.210393 "/>
  <edge id="109902441_1" from="262480689" to="25662047" numLanes="1" width="4.0" shape="-29.359410,-182.840946 57.903480,-158.687558 "/>
  <edge id="109902441_2" from="25662047" to="545110995" numLanes="1" width="4.0" shape="65.438219,-156.369743 106.438142,-142.471217 131.993662,-130.803261 "/>
  <edge id="292429056_1" from="25661386" to="7589514177" numLanes="3" width="4.0" shape="-145.159021,-100.873552 -145.808150,-93.167899 -146.080775,-89.938510 -158.173693,52.446216 "/>
  <edge id="-292429056_1" to="25661386" from="7589514177" numLanes="1" width="4.0" shape="-158.173693,52.446216 -146.080775,-89.938510 -145.808150,-93.167899 -145.159021,-100.873552 "/>
  <edge id="292429056_2" from="7589514177" to="25662916" numLanes="3" width="4.0" shape="-158.833449,60.437880 -160.619456,82.712645 -161.059483,87.878815 -161.060090,87.886023 -161.509041,93.272135 "/>
  <edge id="-292429056_2" to="7589514177" from="25662916" numLanes="1" width="4.0" shape="-161.509041,93.272135 -161.060090,87.886023 -161.059483,87.878815 -160.619456,82.712645 -158.833449,60.437880 "/>
  <edge id="4588219_2" from="3792738033" to="7589514179" numLanes="1" width="4.0" shape="-53.459225,32.895670 -56.076119,61.649496 "/>
  <edge id="-4588219_2" to="3792738033" from="7589514179" numLanes="1" width="4.0" shape="-56.076119,61.649496 -53.459225,32.895670 "/>
  <edge id="4588219_3" from="7589514179" to="7840422619" numLanes="1" width="4.0" shape="-56.766116,69.619607 -57.164914,74.474761 "/>
  <edge id="-4588219_3" to="7589514179" from="7840422619" numLanes="1" width="4.0" shape="-57.164914,74.474761 -56.766116,69.619607 "/>
</edges>
